data_016_write_cif
_audit_creation_method 'critic2'
_chemical_formula_sum 'C'
_cell_formula_units_Z 4
_cell_length_a         2.4560000000
_cell_length_b         2.4560000000
_cell_length_c         6.6960000000
_cell_angle_alpha        90.0000
_cell_angle_beta        90.0000
_cell_angle_gamma       120.0000
_cell_volume            34.978630
_space_group_crystal_system hexagonal
_space_group_IT_number 194
_space_group_name_H-M_alt 'P6_3/mmc'
_space_group_name_Hall '-P 6c 2c'
loop_
_symmetry_equiv_pos_site_id
_symmetry_equiv_pos_as_xyz
 1 'x,y,z'
 2 '-x,-y,-z'
 3 'x-y,x,-1/2+z'
 4 '-x+y,-x,-1/2-z'
 5 '-y,x-y,z'
 6 'y,-x+y,-z'
 7 '-x,-y,-1/2+z'
 8 'x,y,-1/2-z'
 9 '-x+y,-x,z'
 10 'x-y,x,-z'
 11 'y,-x+y,-1/2+z'
 12 '-y,x-y,-1/2-z'
 13 '-y,-x,-1/2-z'
 14 'y,x,-1/2+z'
 15 '-x,-x+y,-z'
 16 'x,x-y,z'
 17 '-x+y,y,-1/2-z'
 18 'x-y,-y,-1/2+z'
 19 'y,x,-z'
 20 '-y,-x,z'
 21 'x,x-y,-1/2-z'
 22 '-x,-x+y,-1/2+z'
 23 'x-y,-y,-z'
 24 '-x+y,y,z'
loop_
_atom_site_label
_atom_site_type_symbol
_atom_site_fract_x
_atom_site_fract_y
_atom_site_fract_z
C1    C     0.00000000000000 0.00000000000000 0.25000000000000 
C2    C     0.33333333000000 0.66666666700000 0.25000000000000 
