data_016_write_cif
_audit_creation_method 'critic2'
_chemical_formula_sum 'C'
_cell_formula_units_Z 4
_cell_length_a         2.4560000000
_cell_length_b         2.4560000000
_cell_length_c         6.6960000000
_cell_angle_alpha        90.0000
_cell_angle_beta        90.0000
_cell_angle_gamma       120.0000
_cell_volume            34.978630
_space_group_crystal_system triclinic
_space_group_IT_number 1
_space_group_name_H-M_alt 'P 1'
_space_group_name_Hall 'P 1'
loop_
_symmetry_equiv_pos_site_id
_symmetry_equiv_pos_as_xyz
 1 'x,y,z'
loop_
_atom_site_label
_atom_site_type_symbol
_atom_site_fract_x
_atom_site_fract_y
_atom_site_fract_z
C1    C     0.00000000000000 0.00000000000000 0.25000000000000 
C2    C     0.00000000000000 0.00000000000000 0.75000000000000 
C3    C     0.33333333000000 0.66666666700000 0.25000000000000 
C4    C     0.66666667000000 0.33333333300000 0.75000000000000 
