data_009_library
_audit_creation_method 'critic2'
_chemical_formula_sum 'Cu'
_cell_formula_units_Z 4
_cell_length_a         5.6402000000
_cell_length_b         5.6402000000
_cell_length_c         5.6402000000
_cell_angle_alpha        90.0000
_cell_angle_beta        90.0000
_cell_angle_gamma        90.0000
_cell_volume           179.425230
_space_group_crystal_system cubic
_space_group_IT_number 225
_space_group_name_H-M_alt 'Fm-3m'
_space_group_name_Hall '-F 4 2 3'
loop_
_symmetry_equiv_pos_site_id
_symmetry_equiv_pos_as_xyz
 1 'x,y,z'
 2 '-x,-y,-z'
 3 '-y,x,z'
 4 'y,-x,-z'
 5 '-x,-y,z'
 6 'x,y,-z'
 7 'y,-x,z'
 8 '-y,x,-z'
 9 'x,-y,-z'
 10 '-x,y,z'
 11 '-y,-x,-z'
 12 'y,x,z'
 13 '-x,y,-z'
 14 'x,-y,z'
 15 'y,x,-z'
 16 '-y,-x,z'
 17 'z,x,y'
 18 '-z,-x,-y'
 19 'z,-y,x'
 20 '-z,y,-x'
 21 'z,-x,-y'
 22 '-z,x,y'
 23 'z,y,-x'
 24 '-z,-y,x'
 25 '-z,x,-y'
 26 'z,-x,y'
 27 '-z,-y,-x'
 28 'z,y,x'
 29 '-z,-x,y'
 30 'z,x,-y'
 31 '-z,y,x'
 32 'z,-y,-x'
 33 'y,z,x'
 34 '-y,-z,-x'
 35 'x,z,-y'
 36 '-x,-z,y'
 37 '-y,z,-x'
 38 'y,-z,x'
 39 '-x,z,y'
 40 'x,-z,-y'
 41 '-y,-z,x'
 42 'y,z,-x'
 43 '-x,-z,-y'
 44 'x,z,y'
 45 'y,-z,-x'
 46 '-y,z,x'
 47 'x,-z,y'
 48 '-x,z,-y'
 49 'x,-1/2+y,-1/2+z'
 50 '-x,-1/2-y,-1/2-z'
 51 '-y,-1/2+x,-1/2+z'
 52 'y,-1/2-x,-1/2-z'
 53 '-x,-1/2-y,-1/2+z'
 54 'x,-1/2+y,-1/2-z'
 55 'y,-1/2-x,-1/2+z'
 56 '-y,-1/2+x,-1/2-z'
 57 'x,-1/2-y,-1/2-z'
 58 '-x,-1/2+y,-1/2+z'
 59 '-y,-1/2-x,-1/2-z'
 60 'y,-1/2+x,-1/2+z'
 61 '-x,-1/2+y,-1/2-z'
 62 'x,-1/2-y,-1/2+z'
 63 'y,-1/2+x,-1/2-z'
 64 '-y,-1/2-x,-1/2+z'
 65 'z,-1/2+x,-1/2+y'
 66 '-z,-1/2-x,-1/2-y'
 67 'z,-1/2-y,-1/2+x'
 68 '-z,-1/2+y,-1/2-x'
 69 'z,-1/2-x,-1/2-y'
 70 '-z,-1/2+x,-1/2+y'
 71 'z,-1/2+y,-1/2-x'
 72 '-z,-1/2-y,-1/2+x'
 73 '-z,-1/2+x,-1/2-y'
 74 'z,-1/2-x,-1/2+y'
 75 '-z,-1/2-y,-1/2-x'
 76 'z,-1/2+y,-1/2+x'
 77 '-z,-1/2-x,-1/2+y'
 78 'z,-1/2+x,-1/2-y'
 79 '-z,-1/2+y,-1/2+x'
 80 'z,-1/2-y,-1/2-x'
 81 'y,-1/2+z,-1/2+x'
 82 '-y,-1/2-z,-1/2-x'
 83 'x,-1/2+z,-1/2-y'
 84 '-x,-1/2-z,-1/2+y'
 85 '-y,-1/2+z,-1/2-x'
 86 'y,-1/2-z,-1/2+x'
 87 '-x,-1/2+z,-1/2+y'
 88 'x,-1/2-z,-1/2-y'
 89 '-y,-1/2-z,-1/2+x'
 90 'y,-1/2+z,-1/2-x'
 91 '-x,-1/2-z,-1/2-y'
 92 'x,-1/2+z,-1/2+y'
 93 'y,-1/2-z,-1/2-x'
 94 '-y,-1/2+z,-1/2+x'
 95 'x,-1/2-z,-1/2+y'
 96 '-x,-1/2+z,-1/2-y'
 97 '-1/2+x,y,-1/2+z'
 98 '-1/2-x,-y,-1/2-z'
 99 '-1/2-y,x,-1/2+z'
 100 '-1/2+y,-x,-1/2-z'
 101 '-1/2-x,-y,-1/2+z'
 102 '-1/2+x,y,-1/2-z'
 103 '-1/2+y,-x,-1/2+z'
 104 '-1/2-y,x,-1/2-z'
 105 '-1/2+x,-y,-1/2-z'
 106 '-1/2-x,y,-1/2+z'
 107 '-1/2-y,-x,-1/2-z'
 108 '-1/2+y,x,-1/2+z'
 109 '-1/2-x,y,-1/2-z'
 110 '-1/2+x,-y,-1/2+z'
 111 '-1/2+y,x,-1/2-z'
 112 '-1/2-y,-x,-1/2+z'
 113 '-1/2+z,x,-1/2+y'
 114 '-1/2-z,-x,-1/2-y'
 115 '-1/2+z,-y,-1/2+x'
 116 '-1/2-z,y,-1/2-x'
 117 '-1/2+z,-x,-1/2-y'
 118 '-1/2-z,x,-1/2+y'
 119 '-1/2+z,y,-1/2-x'
 120 '-1/2-z,-y,-1/2+x'
 121 '-1/2-z,x,-1/2-y'
 122 '-1/2+z,-x,-1/2+y'
 123 '-1/2-z,-y,-1/2-x'
 124 '-1/2+z,y,-1/2+x'
 125 '-1/2-z,-x,-1/2+y'
 126 '-1/2+z,x,-1/2-y'
 127 '-1/2-z,y,-1/2+x'
 128 '-1/2+z,-y,-1/2-x'
 129 '-1/2+y,z,-1/2+x'
 130 '-1/2-y,-z,-1/2-x'
 131 '-1/2+x,z,-1/2-y'
 132 '-1/2-x,-z,-1/2+y'
 133 '-1/2-y,z,-1/2-x'
 134 '-1/2+y,-z,-1/2+x'
 135 '-1/2-x,z,-1/2+y'
 136 '-1/2+x,-z,-1/2-y'
 137 '-1/2-y,-z,-1/2+x'
 138 '-1/2+y,z,-1/2-x'
 139 '-1/2-x,-z,-1/2-y'
 140 '-1/2+x,z,-1/2+y'
 141 '-1/2+y,-z,-1/2-x'
 142 '-1/2-y,z,-1/2+x'
 143 '-1/2+x,-z,-1/2+y'
 144 '-1/2-x,z,-1/2-y'
 145 '-1/2+x,-1/2+y,z'
 146 '-1/2-x,-1/2-y,-z'
 147 '-1/2-y,-1/2+x,z'
 148 '-1/2+y,-1/2-x,-z'
 149 '-1/2-x,-1/2-y,z'
 150 '-1/2+x,-1/2+y,-z'
 151 '-1/2+y,-1/2-x,z'
 152 '-1/2-y,-1/2+x,-z'
 153 '-1/2+x,-1/2-y,-z'
 154 '-1/2-x,-1/2+y,z'
 155 '-1/2-y,-1/2-x,-z'
 156 '-1/2+y,-1/2+x,z'
 157 '-1/2-x,-1/2+y,-z'
 158 '-1/2+x,-1/2-y,z'
 159 '-1/2+y,-1/2+x,-z'
 160 '-1/2-y,-1/2-x,z'
 161 '-1/2+z,-1/2+x,y'
 162 '-1/2-z,-1/2-x,-y'
 163 '-1/2+z,-1/2-y,x'
 164 '-1/2-z,-1/2+y,-x'
 165 '-1/2+z,-1/2-x,-y'
 166 '-1/2-z,-1/2+x,y'
 167 '-1/2+z,-1/2+y,-x'
 168 '-1/2-z,-1/2-y,x'
 169 '-1/2-z,-1/2+x,-y'
 170 '-1/2+z,-1/2-x,y'
 171 '-1/2-z,-1/2-y,-x'
 172 '-1/2+z,-1/2+y,x'
 173 '-1/2-z,-1/2-x,y'
 174 '-1/2+z,-1/2+x,-y'
 175 '-1/2-z,-1/2+y,x'
 176 '-1/2+z,-1/2-y,-x'
 177 '-1/2+y,-1/2+z,x'
 178 '-1/2-y,-1/2-z,-x'
 179 '-1/2+x,-1/2+z,-y'
 180 '-1/2-x,-1/2-z,y'
 181 '-1/2-y,-1/2+z,-x'
 182 '-1/2+y,-1/2-z,x'
 183 '-1/2-x,-1/2+z,y'
 184 '-1/2+x,-1/2-z,-y'
 185 '-1/2-y,-1/2-z,x'
 186 '-1/2+y,-1/2+z,-x'
 187 '-1/2-x,-1/2-z,-y'
 188 '-1/2+x,-1/2+z,y'
 189 '-1/2+y,-1/2-z,-x'
 190 '-1/2-y,-1/2+z,x'
 191 '-1/2+x,-1/2-z,y'
 192 '-1/2-x,-1/2+z,-y'
loop_
_atom_site_label
_atom_site_type_symbol
_atom_site_fract_x
_atom_site_fract_y
_atom_site_fract_z
Cu1   Cu    0.00000000000000 0.00000000000000 0.00000000000000 
